/*--------------------------------*- C++ -*----------------------------------*\
| =========                 |                                                 |
| \\      /  F ield         | OpenFOAM: The Open Source CFD Toolbox           |
|  \\    /   O peration     | Version:  v2312                                 |
|   \\  /    A nd           | Website:  www.openfoam.com                      |
|    \\/     M anipulation  |                                                 |
\*---------------------------------------------------------------------------*/
FoamFile
{
    version     2.0;
    format      ascii;
    class       dictionary;
    object      blockMeshDict;
}
// * * * * * * * * * * * * * * * * * * * * * * * * * * * * * * * * * * * * * //

scale   1;

vertices
(
    (-0.05 -0.05 0.25) // 0
    (0.05 -0.05 0.25)  // 1
    (0.05 -0.05 0.35)  // 2
    (-0.05 -0.05 0.35) // 3
    (-0.05 0.05 0.25)  // 4
    (0.05 0.05 0.25)   // 5
    (0.05 0.05 0.35)   // 6
    (-0.05 0.05 0.35)  // 7
);

blocks
(
    hex (0 3 2 1 4 7 6 5) (25 25 25) simpleGrading (1 1 1)
);

edges
(
);

boundary
(
    sides
    {
        type overset;
        faces
        (
            (0 3 2 1)
            (2 6 5 1)
            (1 5 4 0)
            (3 7 6 2)
            (0 4 7 3)
            (4 5 6 7)
        );
    }
    floatingObject
    {
        type wall;
        faces ();
    }
);


// ************************************************************************* //
